Flow Title=steady-LostCreek
Program Version=6.31
Number of Profiles= 1 
Profile Names=PF 1
River Rch & RM=Lost Creek,main            ,12      
    3000
Boundary for River Rch & Prof#=Lost Creek,main            , 1 
Up Type= 0 
Dn Type= 3 
Dn Slope=0.01
DSS Import StartDate=
DSS Import StartTime=
DSS Import EndDate=
DSS Import EndTime=
DSS Import GetInterval= 0 
DSS Import Interval=
DSS Import GetPeak= 0 
DSS Import FillOption= 0 
